5 - Power Flow Calcs/my_case.m
function mpc = my_case
%MY_CASE

%% MATPOWER Case Format : Version 2
mpc.version = '2';

%%-----  Power Flow Data  -----%%
%% system MVA base
mpc.baseMVA = 10;

%% bus data
%	bus_i	type	Pd	Qd	Gs	Bs	area	Vm	Va	baseKV	zone	Vmax	Vmin
mpc.bus = [
	1	3	0	0	0	0	1	1	0	10	1	1.1	0.9;
	2	2	0	0	0	0	1	1	0	10	1	1.1	0.9;
	3	2	0	0	0	0	1	1	0	10	1	1.1	0.9;
	4	1	0	0	0	0	1	1	0	10	1	1.1	0.9;
	5	1	3	1	0	0	1	1	0	10	1	1.1	0.9;
	6	1	0	0	0	0	1	1	0	10	1	1.1	0.9;
	7	1	3.33333333	1.16666667	0	0	1	1	0	10	1	1.1	0.9;
	8	1	0	0	0	0	1	1	0	10	1	1.1	0.9;
	9	1	4.16666667	1.66666667	0	0	1	1	0	10	1	1.1	0.9;
];

%% generator data
%	bus	Pg	Qg	Qmax	Qmin	Vg	mBase	status	Pmax	Pmin	Pc1	Pc2	Qc1min	Qc1max	Qc2min	Qc2max	ramp_agc	ramp_10	ramp_30	ramp_q	apf
mpc.gen = [
	1	0	0	1.1	-1.1	1	10	1	1.1	0.33	0.504083326	1.1	-1.1	1.1	-0.504083326	0.504083326	0	0	0	0	0;
	2	0	0	1.1	-1.1	1	10	1	1.1	0.33	0.504083326	1.1	-1.1	1.1	-0.504083326	0.504083326	0	0	0	0	0;
	3	0	0	1.1	-1.1	1	10	1	1.1	0.33	0.504083326	1.1	-1.1	1.1	-0.504083326	0.504083326	0	0	0	0	0;
];

%% branch data
%	fbus	tbus	r	x	b	rateA	rateB	rateC	ratio	angle	status	angmin	angmax
mpc.branch = [
	1	4	0.2565	0.093	0.00675	250	250	250	0	0	1	-360	360;
	4	5	0.4104	0.1488	0.0108	250	250	250	0	0	1	-360	360;
	5	6	0.756675	0.27435	0.0199125	150	150	150	0	0	1	-360	360;
	3	6	0.26163	0.09486	0.006885	300	300	300	0	0	1	-360	360;
	6	7	0.448875	0.16275	0.0118125	150	150	150	0	0	1	-360	360;
	7	8	0.320625	0.11625	0.0084375	250	250	250	0	0	1	-360	360;
	8	2	0.279585	0.10137	0.0073575	250	250	250	0	0	1	-360	360;
	8	9	0.7182	0.2604	0.0189	250	250	250	0	0	1	-360	360;
	9	4	0.38475	0.1395	0.010125	250	250	250	0	0	1	-360	360;
];

%%-----  OPF Data  -----%%
%% generator cost data
%	1	startup	shutdown	n	x1	y1	...	xn	yn
%	2	startup	shutdown	n	c(n-1)	...	c0
mpc.gencost = [
	2	0	0	3	0.11	5	150;
	2	0	0	3	0.11	5	150;
	2	0	0	3	0.11	5	150;
];
